 DIM-GROUP
 3   5
 PRIMVEC
  -2.0250000428     0.0000000000     2.0250000428
   0.0000000000     2.0250000428     2.0250000428
  -2.0250000428     2.0250000428     0.0000000000

 CONVVEC
   4.0500000856     0.0000000000     0.0000000000
   0.0000000000     4.0500000856     0.0000000000
   0.0000000000     0.0000000000     4.0500000856

 PRIMCOORD
 1 1
 Al       0.0000000000     0.0000000000     0.0000000000       0.0000000000     0.0000000000     0.0000000000
 
