 DIM-GROUP
 3   5
 PRIMVEC
  -2.2304819342     0.0000000000     2.2304819342
   0.0000000000     2.2304819342     2.2304819342
  -2.2304819342     2.2304819342     0.0000000000

 CONVVEC
   4.4609638684     0.0000000000     0.0000000000
   0.0000000000     4.4609638684     0.0000000000
   0.0000000000     0.0000000000     4.4609638684

 PRIMCOORD
 1 1
 Ne       0.0000000000     0.0000000000     0.0000000000       0.0000000000     0.0000000000     0.0000000000
 
