CRYSTAL
PRIMVEC
     2.9731821465    0.0000000000    0.0000000000
    -1.4865910732    2.5748500684    0.0000000000
     0.0000000000    0.0000000000    3.4607840185
 PRIMCOORD
3 1
   Li       0.0000000000     0.0000000000     0.0000000000      -0.0000000000     0.0000000000     0.0000000000
    B       0.0000000000     1.7165676042     1.7303920092       0.0000000000    -0.0000000000     0.0000000000
    B       1.4865910732     0.8582836534     1.7303920092       0.0000000000     0.0000000000    -0.0000000000
