CRYSTAL
PRIMVEC
    -1.7399346618    0.0000000000    1.7399346618
     0.0000000000    1.7399346618    1.7399346618
    -1.7399346618    1.7399346618    0.0000000000
 PRIMCOORD
2 1
   Al       0.0000000000     0.0000000000     0.0000000000       0.0000000000     0.0000000000     0.0000000000
    O      -1.7399346618     1.7399346618     1.7399346618       0.0000000000     0.0000000000     0.0000000000
